Version 4
SHEET 1 1224 680
WIRE -48 -160 -112 -160
WIRE 80 -160 32 -160
WIRE 192 -160 80 -160
WIRE 256 -160 192 -160
WIRE 400 -160 336 -160
WIRE 416 -160 400 -160
WIRE 528 -160 480 -160
WIRE 560 -160 528 -160
WIRE 704 -160 624 -160
WIRE 864 -160 704 -160
WIRE 1056 -160 864 -160
WIRE 704 -128 704 -160
WIRE 864 -128 864 -160
WIRE 400 -112 400 -160
WIRE 400 -112 352 -112
WIRE 528 -112 528 -160
WIRE -112 -96 -112 -160
WIRE 80 -96 80 -160
WIRE 704 -48 704 -64
WIRE 1056 -48 1056 -160
WIRE 80 0 80 -32
WIRE 528 0 528 -32
WIRE 864 0 864 -48
WIRE 864 0 736 0
WIRE 352 32 352 -112
WIRE 640 32 352 32
WIRE 864 32 864 0
WIRE 192 64 192 -160
WIRE 192 64 176 64
WIRE 384 64 192 64
WIRE 1056 80 1056 32
WIRE 384 128 384 64
WIRE 800 144 592 144
WIRE 864 160 864 112
WIRE 176 192 176 64
WIRE 224 192 176 192
WIRE 592 192 592 144
WIRE 592 192 544 192
WIRE 640 192 640 32
WIRE 800 192 800 144
WIRE 848 192 800 192
WIRE 960 192 848 192
WIRE 224 272 -64 272
WIRE 592 272 544 272
WIRE 848 288 848 192
WIRE 128 352 32 352
WIRE 224 352 128 352
WIRE 640 352 640 288
WIRE 640 352 544 352
WIRE 640 384 640 352
WIRE 960 384 960 192
WIRE 1104 384 960 384
WIRE 32 400 32 352
WIRE 128 400 128 352
WIRE 32 512 32 480
WIRE -64 640 -64 272
WIRE 736 640 736 0
WIRE 736 640 -64 640
FLAG 864 160 0
FLAG 80 0 0
FLAG 528 0 0
FLAG -112 -16 0
FLAG 704 -48 0
FLAG 1056 80 0
FLAG 640 464 0
FLAG 384 416 0
FLAG 32 576 0
FLAG 128 464 0
FLAG 848 352 0
FLAG 1104 464 0
SYMBOL ind2 352 -144 M270
WINDOW 0 32 56 VTop 2
WINDOW 3 5 56 VBottom 2
SYMATTR InstName L1
SYMATTR Value 100µ
SYMATTR Type ind
SYMATTR SpiceLine Rser=0.05
SYMBOL cap 480 -176 R90
WINDOW 0 0 32 VBottom 2
WINDOW 3 32 32 VTop 2
SYMATTR InstName C1
SYMATTR Value 1µ
SYMBOL schottky 560 -144 R270
WINDOW 0 32 32 VTop 2
WINDOW 3 0 32 VBottom 2
SYMATTR InstName D1
SYMATTR Value RB060LAM-40
SYMATTR Description Diode
SYMATTR Type diode
SYMBOL cap 688 -128 R0
SYMATTR InstName C2
SYMATTR Value 20µ
SYMBOL res 848 -144 R0
SYMATTR InstName R1
SYMATTR Value 10k
SYMBOL res 848 16 R0
SYMATTR InstName R2
SYMATTR Value 1k
SYMBOL cap 64 -96 R0
SYMATTR InstName C3
SYMATTR Value 10µ
SYMATTR SpiceLine Rser=0.1
SYMBOL ind2 512 -128 R0
SYMATTR InstName L2
SYMATTR Value 100µ
SYMATTR Type ind
SYMATTR SpiceLine Rser=0.05
SYMBOL voltage -112 -112 R0
WINDOW 123 0 0 Left 0
WINDOW 39 0 0 Left 0
SYMATTR InstName V1
SYMATTR Value 10
SYMBOL res 1040 -64 R0
SYMATTR InstName R3
SYMATTR Value 50
SYMBOL res 48 -176 R90
WINDOW 0 0 56 VBottom 2
WINDOW 3 32 56 VTop 2
SYMATTR InstName R4
SYMATTR Value 0
SYMBOL PowerProducts\\LT1619 384 272 R0
SYMATTR InstName U1
SYMBOL nmos 592 192 R0
SYMATTR InstName M1
SYMATTR Value Si9804DY
SYMBOL res 624 368 R0
SYMATTR InstName R5
SYMATTR Value 0.5
SYMBOL cap 112 400 R0
SYMATTR InstName C4
SYMATTR Value 220p
SYMBOL res 16 384 R0
SYMATTR InstName R7
SYMATTR Value 75k
SYMBOL cap 16 512 R0
SYMATTR InstName C6
SYMATTR Value 15n
SYMBOL cap 832 288 R0
SYMATTR InstName C5
SYMATTR Value 100n
SYMBOL voltage 1104 368 R0
WINDOW 123 0 0 Left 0
WINDOW 39 0 0 Left 0
SYMATTR InstName V2
SYMATTR Value 10
TEXT -496 176 Left 2 !.tran 0 510u 0
TEXT -512 64 Left 2 !K1 L1 L2 1
