Version 4
SHEET 1 1224 728
WIRE 704 -224 400 -224
WIRE 80 -160 -112 -160
WIRE 192 -160 80 -160
WIRE 256 -160 192 -160
WIRE 400 -160 400 -224
WIRE 400 -160 336 -160
WIRE 416 -160 400 -160
WIRE 528 -160 480 -160
WIRE 560 -160 528 -160
WIRE 704 -160 704 -224
WIRE 704 -160 624 -160
WIRE 864 -160 704 -160
WIRE 976 -160 864 -160
WIRE 1024 -160 976 -160
WIRE 1056 -160 1024 -160
WIRE 704 -128 704 -160
WIRE 864 -128 864 -160
WIRE 400 -112 400 -160
WIRE 400 -112 352 -112
WIRE 528 -112 528 -160
WIRE 976 -112 976 -160
WIRE -112 -96 -112 -160
WIRE 80 -96 80 -160
WIRE 352 -64 352 -112
WIRE 704 -48 704 -64
WIRE 1056 -48 1056 -160
WIRE 80 0 80 -32
WIRE 528 0 528 -32
WIRE 864 0 864 -48
WIRE 864 0 736 0
WIRE 976 0 976 -48
WIRE 976 0 880 0
WIRE 192 32 192 -160
WIRE 192 32 64 32
WIRE 864 32 864 0
WIRE 192 64 192 32
WIRE 352 64 352 16
WIRE 1056 80 1056 32
WIRE 64 128 64 32
WIRE 112 128 64 128
WIRE 864 160 864 112
WIRE 736 224 736 0
WIRE 736 224 432 224
WIRE 1024 416 1024 -160
WIRE 1024 416 432 416
FLAG 864 160 0
FLAG 80 0 0
FLAG 528 0 0
FLAG -112 -16 0
FLAG 704 -48 0
FLAG 1056 80 0
FLAG 112 224 0
FLAG 272 480 0
FLAG 32 320 0
FLAG 48 416 0
FLAG 576 320 0
FLAG 496 128 0
SYMBOL ind2 352 -144 M270
WINDOW 0 32 56 VTop 2
WINDOW 3 5 56 VBottom 2
SYMATTR InstName L1
SYMATTR Value 10µ
SYMATTR Type ind
SYMATTR SpiceLine Rser=0.05
SYMBOL cap 480 -176 R90
WINDOW 0 0 32 VBottom 2
WINDOW 3 32 32 VTop 2
SYMATTR InstName C1
SYMATTR Value 1µ
SYMBOL schottky 560 -144 R270
WINDOW 0 32 32 VTop 2
WINDOW 3 0 32 VBottom 2
SYMATTR InstName D1
SYMATTR Value RB060LAM-40
SYMATTR Description Diode
SYMATTR Type diode
SYMBOL cap 688 -128 R0
SYMATTR InstName C2
SYMATTR Value 10µ
SYMBOL res 848 -144 R0
SYMATTR InstName R1
SYMATTR Value 1Meg
SYMBOL res 848 16 R0
SYMATTR InstName R2
SYMATTR Value 464k
SYMBOL cap 64 -96 R0
SYMATTR InstName C3
SYMATTR Value 10µ
SYMATTR SpiceLine Rser=0.1
SYMBOL ind2 512 -128 R0
SYMATTR InstName L2
SYMATTR Value 10µ
SYMATTR Type ind
SYMATTR SpiceLine Rser=0.05
SYMBOL voltage -112 -112 R0
WINDOW 123 0 0 Left 0
WINDOW 39 0 0 Left 0
SYMATTR InstName V1
SYMATTR Value 4
SYMBOL res 1040 -64 R0
SYMATTR InstName R3
SYMATTR Value 15
SYMBOL res 336 -80 R0
SYMATTR InstName R5
SYMATTR Value 0
SYMBOL PowerProducts\\LT8333 272 272 R0
SYMATTR InstName U1
SYMBOL cap 496 304 R90
WINDOW 0 0 32 VBottom 2
WINDOW 3 32 32 VTop 2
SYMATTR InstName C4
SYMATTR Value 330p
SYMBOL res 128 304 R90
WINDOW 0 0 56 VBottom 2
WINDOW 3 32 56 VTop 2
SYMATTR InstName R6
SYMATTR Value 40k
SYMBOL cap 496 112 R90
WINDOW 0 0 32 VBottom 2
WINDOW 3 32 32 VTop 2
SYMATTR InstName C5
SYMATTR Value 1µ
SYMBOL res 592 304 R90
WINDOW 0 0 56 VBottom 2
WINDOW 3 32 56 VTop 2
SYMATTR InstName R7
SYMATTR Value 68k
SYMBOL cap 112 400 R90
WINDOW 0 0 32 VBottom 2
WINDOW 3 32 32 VTop 2
SYMATTR InstName C6
SYMATTR Value 10n
SYMBOL cap 960 -112 R0
SYMATTR InstName C7
SYMATTR Value 4p7
TEXT -472 -32 Left 2 !.tran 0 210u 200u 1u
TEXT -464 24 Left 2 !K1 L1 L2 0
