Version 4
SHEET 1 1224 680
WIRE -48 -160 -112 -160
WIRE 80 -160 32 -160
WIRE 192 -160 80 -160
WIRE 256 -160 192 -160
WIRE 400 -160 336 -160
WIRE 416 -160 400 -160
WIRE 528 -160 480 -160
WIRE 560 -160 528 -160
WIRE 704 -160 624 -160
WIRE 864 -160 704 -160
WIRE 1056 -160 864 -160
WIRE 704 -128 704 -160
WIRE 864 -128 864 -160
WIRE 528 -112 528 -160
WIRE -112 -96 -112 -160
WIRE 80 -96 80 -160
WIRE 704 -48 704 -64
WIRE 1056 -48 1056 -160
WIRE 400 -16 400 -160
WIRE 400 -16 352 -16
WIRE 80 0 80 -32
WIRE 528 0 528 -32
WIRE 864 0 864 -48
WIRE 864 0 736 0
WIRE 192 32 192 -160
WIRE 192 32 64 32
WIRE 864 32 864 0
WIRE 192 64 192 32
WIRE 352 64 352 -16
WIRE 1056 80 1056 32
WIRE 864 160 864 112
WIRE 64 176 64 32
WIRE 112 176 64 176
WIRE 736 176 736 0
WIRE 736 176 432 176
WIRE 192 320 192 288
FLAG 864 160 0
FLAG 352 288 0
FLAG 80 0 0
FLAG 528 0 0
FLAG -112 -16 0
FLAG 192 384 0
FLAG 704 -48 0
FLAG 1056 80 0
SYMBOL ind2 352 -144 M270
WINDOW 0 32 56 VTop 2
WINDOW 3 5 56 VBottom 2
SYMATTR InstName L1
SYMATTR Value 10µ
SYMATTR Type ind
SYMATTR SpiceLine Rser=0.05
SYMBOL cap 480 -176 R90
WINDOW 0 0 32 VBottom 2
WINDOW 3 32 32 VTop 2
SYMATTR InstName C1
SYMATTR Value 1µ
SYMBOL schottky 560 -144 R270
WINDOW 0 32 32 VTop 2
WINDOW 3 0 32 VBottom 2
SYMATTR InstName D1
SYMATTR Value RB058LAM100
SYMATTR Description Diode
SYMATTR Type diode
SYMBOL cap 688 -128 R0
SYMATTR InstName C2
SYMATTR Value 10µ
SYMBOL res 848 -144 R0
SYMATTR InstName R1
SYMATTR Value 10k
SYMBOL res 848 16 R0
SYMATTR InstName R2
SYMATTR Value 5k
SYMBOL cap 64 -96 R0
SYMATTR InstName C3
SYMATTR Value 10µ
SYMATTR SpiceLine Rser=0.1
SYMBOL ind2 512 -128 R0
SYMATTR InstName L2
SYMATTR Value 10µ
SYMATTR Type ind
SYMATTR SpiceLine Rser=0.05
SYMBOL voltage -112 -112 R0
WINDOW 123 0 0 Left 0
WINDOW 39 0 0 Left 0
SYMATTR InstName V1
SYMATTR Value 16
SYMBOL cap 176 320 R0
SYMATTR InstName C4
SYMATTR Value 1µ
SYMBOL res 1040 -64 R0
SYMATTR InstName R3
SYMATTR Value 15
SYMBOL res 48 -176 R90
WINDOW 0 0 56 VBottom 2
WINDOW 3 32 56 VTop 2
SYMATTR InstName R4
SYMATTR Value 0
SYMBOL PowerProducts\\LT8330 272 176 R0
SYMATTR InstName U1
TEXT -144 408 Left 2 !.tran 0 500u 0
TEXT -224 264 Left 2 !K1 L1 L2 1
