Version 4
SHEET 1 1068 680
WIRE -176 -112 -272 -112
WIRE -64 -112 -176 -112
WIRE 96 -112 32 -112
WIRE 208 -112 176 -112
WIRE 336 -112 208 -112
WIRE 336 -96 336 -112
WIRE 208 -80 208 -112
WIRE -272 -64 -272 -112
WIRE 208 16 208 -16
WIRE 336 16 336 -32
WIRE 336 16 208 16
WIRE -272 48 -272 16
WIRE -176 48 -176 -112
WIRE -160 48 -176 48
WIRE -48 48 -48 -64
WIRE -48 48 -96 48
WIRE 48 48 -48 48
WIRE 336 80 336 16
WIRE -48 128 -48 48
WIRE 48 128 48 48
WIRE 336 192 336 160
WIRE -112 224 -272 224
WIRE -272 240 -272 224
WIRE -48 240 -48 192
WIRE 48 240 48 208
WIRE 48 240 -48 240
WIRE -48 256 -48 240
WIRE 48 256 48 240
WIRE -272 336 -272 320
WIRE -112 368 -112 224
WIRE -48 368 -48 336
WIRE -48 368 -112 368
WIRE 48 368 48 320
WIRE 48 368 -48 368
FLAG 336 192 0
FLAG -272 336 0
FLAG -272 48 0
SYMBOL voltage -272 -80 R0
WINDOW 123 0 0 Left 0
WINDOW 39 0 0 Left 0
SYMATTR InstName V1
SYMATTR Value 5
SYMBOL res 192 -128 R90
WINDOW 0 0 56 VBottom 2
WINDOW 3 32 56 VTop 2
SYMATTR InstName R1
SYMATTR Value 4.7
SYMBOL cap 192 -80 R0
WINDOW 3 -46 49 Left 2
SYMATTR InstName C1
SYMATTR Value 100n
SYMBOL zener 352 -32 R180
WINDOW 0 24 64 Left 2
WINDOW 3 24 0 Left 2
SYMATTR InstName D1
SYMATTR Value UMZ5_1N
SYMATTR Description Diode
SYMATTR Type diode
SYMBOL voltage 336 64 R0
WINDOW 3 -187 -17 Left 2
WINDOW 123 0 0 Left 0
WINDOW 39 0 0 Left 0
SYMATTR InstName V2
SYMATTR Value PULSE(0 50 74n 10p 10p 74n 148n)
SYMBOL voltage -272 224 R0
WINDOW 3 -165 -24 Left 2
WINDOW 123 0 0 Left 0
WINDOW 39 0 0 Left 0
SYMATTR InstName V3
SYMATTR Value PULSE(0 5 0 10p 10p 74n 148n)
SYMBOL schottky 32 256 R0
SYMATTR InstName D2
SYMATTR Value RB495D
SYMATTR Description Diode
SYMATTR Type diode
SYMBOL res 32 112 R0
SYMATTR InstName R2
SYMATTR Value 27
SYMBOL res -64 240 R0
SYMATTR InstName R3
SYMATTR Value 20
SYMBOL cap -64 128 R0
SYMATTR InstName C2
SYMATTR Value 22n
SYMBOL schottky -160 64 R270
WINDOW 0 32 32 VTop 2
WINDOW 3 0 32 VBottom 2
SYMATTR InstName D3
SYMATTR Value RB495D
SYMATTR Description Diode
SYMATTR Type diode
SYMBOL SpecialFunctions\\EPC2007 -48 -48 M270
SYMATTR InstName U1
TEXT -388 -186 Left 2 !.tran 0 10u 5u
